# TELEMAC TELECOMUNICACOES LTDA
131.221.168.0/22
2804:1E94::/32
