# TELEMACH HRVATSKA D.O.O.
151.252.208.0/21
151.252.224.0/19
176.222.32.0/20
185.10.40.0/22
185.18.60.0/22
2A02:AC8::/32
2A03:6100:4000::/35
2A03:6100:6000::/40
2A03:6100:6101::/48
2A03:6100:6102::/47
2A03:6100:6104::/46
2A03:6100:6108::/45
2A03:6100:6110::/44
2A03:6100:6120::/43
2A03:6100:6140::/42
2A03:6100:6180::/41
2A03:6100:6200::/39
2A03:6100:6400::/38
2A03:6100:6800::/37
2A03:6100:7000::/36
2A03:6100:8000::/33
2A03:6100::/34
37.205.96.0/20
37.60.128.0/21
5.39.128.0/19
5.43.160.0/19
80.80.48.0/20
85.114.32.0/19
89.17.0.0/19
89.201.128.0/17
95.178.128.0/17
