# TELEMACH D.O.O.
185.53.12.0/24
195.191.96.0/24
195.47.228.0/24
2A02:840::/32
91.185.192.0/19
